/*--------------------------------*- C++ -*----------------------------------*\
| =========                 |                                                 |
| \\      /  F ield         | OpenFOAM: The Open Source CFD Toolbox           |
|  \\    /   O peration     | Version:  2.1.1                                 |
|   \\  /    A nd           | Web:      www.OpenFOAM.org                      |
|    \\/     M anipulation  |                                                 |
\*---------------------------------------------------------------------------*/
FoamFile
{
    version     2.0;
    format      ascii;
    class       dictionary;
    location    "system";
    object      fvSchemes;
}
// * * * * * * * * * * * * * * * * * * * * * * * * * * * * * * * * * * * * * //
fluxScheme              Kurganov;

ddtSchemes
{
    default             Euler;
}

gradSchemes
{
    default             cellLimited Gauss linear 1;
}

divSchemes
{
    default             Gauss linear;
    div(tauMC)          Gauss linear;
}

laplacianSchemes
{
    default             Gauss linear corrected;
}

interpolationSchemes
{
    default             midPoint;
    reconstruct(p)      Minmod;
    reconstruct(M)      Minmod;
    reconstruct(T)      Minmod;
    reconstruct(rho)    Minmod;
    reconstruct(U)      Minmod;
    reconstruct(H) 	Midmod;
}

snGradSchemes
{
    default             corrected;
}

wallDist
{
    method              meshWave;

    correctWalls        true;

}

// ************************************************************************* //
